tests/data/smart-ds/substations/p1uhs23_1247/p1uhs23_1247--p1udt21301/hc_pv_deployments/random/1/15/PVSystems.dss
// PV Scenario for 377.31348613163505 kW total size, Scenario type random, Sample 1 and penetration 15% (PV to load ratio) 
! =====================PV SCENARIO FILE==============================
New PVSystem.small_p1ulv41131_1_2_pv phases=1 bus1=p1ulv41131.1.2 kv=0.2402 irradiance=1 Pmpp=20.882 %Pmpp=100 kVA=20.882 conn=wye %cutin=0.1 %cutout=0.1 Vmaxpu=1.2 yearly=1563529_30.18_-97.49_2019
New PVSystem.small_p1ulv10092_1_2_pv phases=1 bus1=p1ulv10092.1.2 kv=0.2402 irradiance=1 Pmpp=23.059 %Pmpp=100 kVA=23.059 conn=wye %cutin=0.1 %cutout=0.1 Vmaxpu=1.2 yearly=1571313_30.20_-97.39_2019
New PVSystem.small_p1ulv12585_1_2_pv phases=1 bus1=p1ulv12585.1.2 kv=0.2402 irradiance=1 Pmpp=19.138 %Pmpp=100 kVA=19.138 conn=wye %cutin=0.1 %cutout=0.1 Vmaxpu=1.2 yearly=1535431_30.28_-97.83_2019
New PVSystem.small_p1ulv4428_1_2_pv phases=1 bus1=p1ulv4428.1.2 kv=0.2402 irradiance=1 Pmpp=21.944 %Pmpp=100 kVA=21.944 conn=wye %cutin=0.1 %cutout=0.1 Vmaxpu=1.2 yearly=1553723_30.30_-97.61_2019
New PVSystem.small_p1ulv51773_1_2_pv phases=1 bus1=p1ulv51773.1.2 kv=0.2402 irradiance=1 Pmpp=44.833 %Pmpp=100 kVA=44.833 conn=wye %cutin=0.1 %cutout=0.1 Vmaxpu=1.2 yearly=1560321_30.34_-97.53_2019
New PVSystem.small_p1ulv59156_1_2_pv phases=1 bus1=p1ulv59156.1.2 kv=0.2402 irradiance=1 Pmpp=58.619 %Pmpp=100 kVA=58.619 conn=wye %cutin=0.1 %cutout=0.1 Vmaxpu=1.2 yearly=1518805_30.28_-98.03_2019
New PVSystem.small_p1ulv36135_1_2_pv phases=1 bus1=p1ulv36135.1.2 kv=0.2402 irradiance=1 Pmpp=44.833 %Pmpp=100 kVA=44.833 conn=wye %cutin=0.1 %cutout=0.1 Vmaxpu=1.2 yearly=1552056_30.38_-97.63_2019
New PVSystem.small_p1ulv64195_1_2_pv phases=1 bus1=p1ulv64195.1.2 kv=0.2402 irradiance=1 Pmpp=22.217 %Pmpp=100 kVA=22.217 conn=wye %cutin=0.1 %cutout=0.1 Vmaxpu=1.2 yearly=1560319_30.38_-97.53_2019
New PVSystem.small_p1ulv11340_1_2_pv phases=1 bus1=p1ulv11340.1.2 kv=0.2402 irradiance=1 Pmpp=31.963 %Pmpp=100 kVA=31.963 conn=wye %cutin=0.1 %cutout=0.1 Vmaxpu=1.2 yearly=1568225_30.16_-97.43_2019
New PVSystem.small_p1ulv58566_1_2_pv phases=1 bus1=p1ulv58566.1.2 kv=0.2402 irradiance=1 Pmpp=21.015 %Pmpp=100 kVA=21.015 conn=wye %cutin=0.1 %cutout=0.1 Vmaxpu=1.2 yearly=1571309_30.28_-97.39_2019
New PVSystem.small_p1ulv49293_1_2_pv phases=1 bus1=p1ulv49293.1.2 kv=0.2402 irradiance=1 Pmpp=42.566 %Pmpp=100 kVA=42.566 conn=wye %cutin=0.1 %cutout=0.1 Vmaxpu=1.2 yearly=1513830_30.28_-98.09_2019
New PVSystem.small_p1ulv8854_1_2_pv phases=1 bus1=p1ulv8854.1.2 kv=0.2402 irradiance=1 Pmpp=26.245 %Pmpp=100 kVA=26.245 conn=wye %cutin=0.1 %cutout=0.1 Vmaxpu=1.2 yearly=1550397_30.30_-97.65_2019
